Circuit: * C:\Users\zoeni\Desktop\2022 Studies\EDesign 344\A1\A1_LTSpiceTemplate\E344_Ass1_CurrSense.asc

Direct Newton iteration for .op point succeeded.

Date: Sat Jul 23 13:20:45 2022
Total elapsed time: 0.499 seconds.

tnom = 27
temp = 27
method = modified trap
totiter = 83591
traniter = 83567
tranpoints = 28925
accept = 19646
rejected = 9279
matrix size = 17
fillins = 8
solver = Normal
Matrix Compiler1: 1.47 KB object code size  0.3/0.2/[0.1]
Matrix Compiler2: 1.44 KB object code size  0.1/0.2/[0.1]

